VERSION: 1
EXPID:  gcm_c90_profile
EXPDSC: gcm_c90_profile
EXPSRC: GEOSgcm-v10.12.1


COLLECTIONS:
             ::

##################################################
# The GRID_LABELS section must be after the main #
#  list of COLLECTIONS for scripting purposes.   #
##################################################

GRID_LABELS: PC360x181-DC
::

PC360x181-DC.GRID_TYPE: LatLon
PC360x181-DC.IM_WORLD: 360
PC360x181-DC.JM_WORLD: 181
PC360x181-DC.POLE: PC
PC360x181-DC.DATELINE: DC
PC360x181-DC.LM: 72

  geosgcm_prog.template:  '%y4%m2%d2_%h2%n2z.nc4',
  geosgcm_prog.archive:   '%c/Y%y4',
  geosgcm_prog.format:    'CFIO',
  geosgcm_prog.frequency:  060000,
  geosgcm_prog.grid_label: PC360x181-DC
  geosgcm_prog.vscale:     100.0,
  geosgcm_prog.vunit:     'hPa',
  geosgcm_prog.vvars:     'log(PLE)' , 'DYN'          ,
  geosgcm_prog.levels:     1000 975 950 925 900 875 850 825 800 775 750 725 700 650 600 550 500 450 400 350 300 250 200 150 100 70 50 40 30 20 10 7 5 4 3 2 1 0.7 0.5 0.4 0.3 0.2 0.1 0.07 0.05 0.04 0.03 0.02,
  geosgcm_prog.fields:    'PHIS'     , 'AGCM'         ,
                          'SLP'      , 'DYN'          ,
                          'U;V'      , 'DYN'          ,
                          'T'        , 'DYN'          ,
                          'PS'       , 'DYN'          ,
                          'ZLE'      , 'DYN'          , 'H'   ,
                          'OMEGA'    , 'DYN'          ,
                          'Q'        , 'MOIST'        , 'QV'  ,
                          'QITOT'    , 'AGCM'         , 'QI'  ,
                          'QLTOT'    , 'AGCM'         , 'QL'  ,
                          'RH2'      , 'MOIST'        , 'RH'  ,
                          'O3'       , 'CHEMISTRY'    ,
                          ::

  geosgcm_surf.template:  '%y4%m2%d2_%h2%n2z.nc4',
  geosgcm_surf.archive:   '%c/Y%y4',
  geosgcm_surf.format:    'CFIO',
  geosgcm_surf.mode:      'time-averaged',
  geosgcm_surf.frequency:  030000,
  geosgcm_surf.ref_time:   210000,
  geosgcm_surf.grid_label: PC360x181-DC
  geosgcm_surf.fields:    'PHIS'          , 'AGCM'     ,
                          'SGH'           , 'AGCM'     ,
                          'VARFLT'        , 'AGCM'     ,
                          'TROPP_EPV'     , 'AGCM'     ,  'TROPPV' ,
                          'TROPP_THERMAL' , 'AGCM'     ,  'TROPPT' ,
                          'TROPP_BLENDED' , 'AGCM'     ,  'TROPPB' ,
                          'TROPT'         , 'AGCM'     ,
                          'TROPQ'         , 'AGCM'     ,
                          'QVFILL'   , 'AGCM'          ,
                          'OXFILL'   , 'AGCM'          ,
                          'TA'       , 'DYN'           ,
                          'QA'       , 'DYN'           ,
                          'US;VS'    , 'DYN'           ,
                          'PS'       , 'DYN'           ,
                          'SPEED'    , 'DYN'           ,
                          'ZPBL'     , 'TURBULENCE'    ,  'PBLH'   ,
                          'TS'       , 'SURFACE'       ,
                          'QS'       , 'SURFACE'       ,
                          'THAT'     , 'SURFACE'       ,
                          'QHAT'     , 'SURFACE'       ,
                          'CU2DRAINMOVE' , 'MOIST'     ,
                          'CU2DSNOWMOVE' , 'MOIST'     ,
                          'RAS_TIME' , 'MOIST'         ,
                          'CN_PRCP'  , 'MOIST'         , 'CNPRCP' ,
                          'LS_PRCP'  , 'MOIST'         , 'LSPRCP' ,
                          'AN_PRCP'  , 'MOIST'         , 'ANPRCP' ,
                          'LS_PRCP+CU2DRAINMOVE+CU2DSNOWMOVE' , 'MOIST' , 'LSORIG' ,
                          'CN_PRCP-CU2DRAINMOVE-CU2DSNOWMOVE' , 'MOIST' , 'CNORIG' ,
                          'SNO'      , 'MOIST'         ,
                          'PLS'      , 'MOIST'         ,
                          'PCU'      , 'MOIST'         ,
                          'LWP'      , 'MOIST'         ,
                          'CCWP'     , 'MOIST'         ,
                          'TAUTT'    , 'SOLAR'         ,
                          'TAULO'    , 'SOLAR'         ,
                          'TAUMD'    , 'SOLAR'         ,
                          'TAUHI'    , 'SOLAR'         ,
                          'CLDTT'    , 'SOLAR'         ,
                          'CLDLO'    , 'SOLAR'         ,
                          'CLDMD'    , 'SOLAR'         ,
                          'CLDHI'    , 'SOLAR'         ,
                          'SPLAND'   , 'SURFACE'       ,
                          'SPWATR'   , 'SURFACE'       ,
                          'RUNSURF'  , 'SURFACE'       , 'RUNOFF' ,
                          'BASEFLOW' , 'SURFACE'       ,
                          'EMIS'     , 'SURFACE'       ,
                          'CT'       , 'SURFACE'       ,
                          'CQ'       , 'SURFACE'       ,
                          'CN'       , 'SURFACE'       ,
                          'CM'       , 'SURFACE'       ,
                          'RI'       , 'SURFACE'       , 'RISFC' ,
                          'LAI'      , 'SURFACE'       ,
                          'GRN'      , 'SURFACE'       ,
                          'SNOMAS'   , 'SURFACE'       ,
                          'ITY'      , 'SURFACE'       , 'VEGTYPE' ,
                          'WET1'     , 'SURFACE'       ,
                          'WET2'     , 'SURFACE'       ,
                          'WET3'     , 'SURFACE'       ,
                          'TSOIL1'   , 'SURFACE'       ,
                          'TSOIL2'   , 'SURFACE'       ,
                          'FRLAND'   , 'SURFACE'       ,
                          'FRLANDICE', 'SURFACE'       ,
                          'FRLAKE'   , 'SURFACE'       ,
                          'FRACI'    , 'SURFACE'       , 'FRSEAICE' ,
                          'FROCEAN'  , 'SURFACE'       ,
                          'USTAR'    , 'SURFACE'       ,
                          'Z0'       , 'SURFACE'       ,
                          'Z0H'      , 'SURFACE'       ,
                          'LHFX'     , 'SURFACE'       ,
                          'SH'       , 'SURFACE'       , 'SHFX'     ,
                          'EVAP'     , 'SURFACE'       ,
                          'TAUX;TAUY', 'SURFACE'       ,
                          'RHOS'     , 'SURFACE'       ,
                          'U2M;V2M'  , 'SURFACE'       ,
                          'T2M'      , 'SURFACE'       ,
                          'Q2M'      , 'SURFACE'       ,
                          'U10N;V10N', 'SURFACE'       ,
                          'U10M;V10M', 'SURFACE'       ,
                          'T10M'     , 'SURFACE'       ,
                          'Q10M'     , 'SURFACE'       ,
                          'U50M;V50M', 'SURFACE'       ,
                          'GUST'     , 'SURFACE'       ,
                          'VENT'     , 'SURFACE'       ,
                          'ASNOW'    , 'SURFACE'       ,
                          'RADSRF'   , 'RADIATION'     ,
                          'TBISCCP'   , 'SATSIM'       ,
                          'FLNS'      , 'IRRAD'        ,
                          'FLNSC'     , 'IRRAD'        ,
                          'FLNSA'     , 'IRRAD'        , 'FLNSCNA'   ,
                          'OLR'       , 'IRRAD'        ,
                          'OLC'       , 'IRRAD'        , 'OLRC'      ,
                          'OLCC5'     , 'IRRAD'        , 'OLRCC5'    ,
                          'OLA'       , 'IRRAD'        , 'OLRCNA'    ,
                          'LWS'       , 'IRRAD'        ,
                          'LCS'       , 'IRRAD'        , 'LWSC'      ,
                          'LCSC5'     , 'IRRAD'        , 'LWSCC5'    ,
                          'LAS'       , 'IRRAD'        , 'LWSCNA'    ,
                          'SFCEM'     , 'IRRAD'        ,
                          'CLDTMP'    , 'SOLAR'        , 'SWCLDTMP'  ,
                          'CLDPRS'    , 'SOLAR'        , 'SWCLDPRS'  ,
                          'OSR'       , 'SOLAR'        ,
                          'OSRCLR'    , 'SOLAR'        ,
                          'RSR'       , 'SOLAR'        , 'SWTNET'    ,
                          'RSC'       , 'SOLAR'        , 'SWTNETC'   ,
                          'RSCNA'     , 'SOLAR'        , 'SWTNETCNA' ,
                          'RSRNA'     , 'SOLAR'        , 'SWTNETNA'  ,
                          'SLRTP'     , 'SOLAR'        , 'RADSWT'    ,
                          'SLRSF'     , 'SOLAR'        , 'SWGDWN'    ,
                          'SLRSFC'    , 'SOLAR'        , 'SWGDWNC'   ,
                          'RSRS'      , 'SOLAR'        , 'SWGNET'    ,
                          'RSCS'      , 'SOLAR'        , 'SWGNETC'   ,
                          'RSRSNA'    , 'SOLAR'        , 'SWGNETNA'  ,
                          'RSCSNA'    , 'SOLAR'        , 'SWGNETCNA' ,
                          'ALBEDO'    , 'SOLAR'        ,
                          'ALBVR'     , 'SOLAR'        ,
                          'ALBVF'     , 'SOLAR'        ,
                          'ALBNR'     , 'SOLAR'        ,
                          'ALBNF'     , 'SOLAR'        ,
                          'EVLAND'    , 'SURFACE'      ,
                          'LHLAND'    , 'SURFACE'      ,
                          'SHLAND'    , 'SURFACE'      ,
                          'SWLAND'    , 'SURFACE'      ,
                          'LWLAND'    , 'SURFACE'      ,
                          'GHLAND'    , 'SURFACE'      ,
                          'SMLAND'    , 'SURFACE'      ,
                          'TWLAND'    , 'SURFACE'      ,
                          'TELAND'    , 'SURFACE'      ,
# additonal exports for skin SST
                          'EVAPOUT'  , 'SURFACE'  ,
                          'COSZ'     , 'SOLAR'    ,
                          'DCOOL'    , 'SURFACE'  ,
                          'DWARM'    , 'SURFACE'  ,
                          'TDROP'    , 'SURFACE'  , 'DELT_COOL' ,
                          'TS_FOUND' , 'SURFACE'  , 'BULK_SST' ,
                          'TDEL'     , 'SURFACE'  ,
                          'BCOOL'    , 'SURFACE'  ,
                          'LCOOL'    , 'SURFACE'  ,
                          'TBAR'     , 'SURFACE'  ,
                          'USTARW'   , 'SURFACE'  ,
                          'SWCOOL'   , 'SURFACE'  ,
                          'QCOOL'    , 'SURFACE'  ,
                          'DELTS'    , 'SURFACE'  ,
                          'QWARM'    , 'SURFACE'  ,
                          'SWWARM'   , 'SURFACE'  ,
                          'LANGM'    , 'SURFACE'  ,
                          'PHIW'     , 'SURFACE'  ,
                          'TAUTW'    , 'SURFACE'  ,
                          'ZETA_W'   , 'SURFACE'  ,
                          ::

  geosgcm_meltwtr.template:  '%y4%m2%d2_%h2%n2z.nc4',
  geosgcm_meltwtr.archive:   '%c/Y%y4',
  geosgcm_meltwtr.format:    'CFIO',
  geosgcm_meltwtr.mode:      'time-averaged',
  geosgcm_meltwtr.frequency:  240000,
  geosgcm_meltwtr.ref_time:   210000,
  geosgcm_meltwtr.regrid_name: 'PE90x540-CF'
  geosgcm_meltwtr.regrid_exch: 'tile.bin',
  geosgcm_meltwtr.grid_label: PC360x181-DC
  geosgcm_meltwtr.fields:    'MELTWTR'      , 'LANDICE'     ,
                             ::

  geosgcm_landice.template:  '%y4%m2%d2_%h2%n2z.nc4',
  geosgcm_landice.archive:   '%c/Y%y4',
  geosgcm_landice.format:    'CFIO',
  geosgcm_landice.mode:      'time-averaged',
  geosgcm_landice.frequency:  240000,
  geosgcm_landice.ref_time:   210000,
  geosgcm_landice.regrid_name: 'PE90x540-CF'
  geosgcm_landice.regrid_exch: 'tile.bin',
  geosgcm_landice.grid_label: PC360x181-DC
  geosgcm_landice.fields:    'SNOMAS_GL'     , 'LANDICE'     ,
                             'SNOWDP_GL'     , 'LANDICE'     ,
                             'TST'           , 'LANDICE'     ,
                             'ASNOW_GL'      , 'LANDICE'     ,
                             'RUNOFF'        , 'LANDICE'     ,
                             'WESNSC'        , 'LANDICE'     ,
                             'SNDZSC'        , 'LANDICE'     ,
                             'WESNPREC'      , 'LANDICE'     ,
                             'SNDZPREC'      , 'LANDICE'     ,
                             'SNDZ1PERC'     , 'LANDICE'     ,
                             'WESNBOT'       , 'LANDICE'     ,
                             'IMELT'         , 'LANDICE'     ,
                             'SNOWALB'       , 'LANDICE'     ,
                             'SNICEALB'      , 'LANDICE'     ,
                             'ACCUM'         , 'LANDICE'     ,
                             'RAINRFZ'       , 'LANDICE'     ,
                             'SHOUT'         , 'LANDICE'     ,
                             'HLATN'         , 'LANDICE'     ,
                             'HLWUP'         , 'LANDICE'     ,
                             'LWNDSRF'       , 'LANDICE'     ,
                             'SWNDSRF'       , 'LANDICE'     ,
                             ::

  geosgcm_snowlayer.template:  '%y4%m2%d2_%h2%n2z.nc4',
  geosgcm_snowlayer.archive:   '%c/Y%y4',
  geosgcm_snowlayer.format:    'CFIO',
  geosgcm_snowlayer.mode:      'time-averaged',
  geosgcm_snowlayer.frequency:  240000,
  geosgcm_snowlayer.ref_time:   210000,
  geosgcm_snowlayer.regrid_name: 'PE90x540-CF'
  geosgcm_snowlayer.regrid_exch: 'tile.bin',
  geosgcm_snowlayer.grid_label: PC360x181-DC
  geosgcm_snowlayer.fields:    'RHOSNOW'       , 'LANDICE'     ,
                               'TSNOW'         , 'LANDICE'     ,
                               'WSNOW'         , 'LANDICE'     ,
                               'ZSNOW'         , 'LANDICE'     ,
                               'DRHOS0'        , 'LANDICE'     ,
                               'WESNEX'        , 'LANDICE'     ,
                               'WESNPERC'      , 'LANDICE'     ,
                               'WESNDENS'      , 'LANDICE'     ,
                               'WESNREPAR'     , 'LANDICE'     ,
                               'TICE0'         , 'LANDICE'     ,
                               ::

  geosgcm_moist.template:  '%y4%m2%d2_%h2%n2z.nc4',
  geosgcm_moist.archive:   '%c/Y%y4',
  geosgcm_moist.format:    'CFIO',
  geosgcm_moist.mode:      'time-averaged',
  geosgcm_moist.frequency:  240000,
  geosgcm_moist.ref_time:   210000,
  geosgcm_moist.grid_label: PC360x181-DC
  geosgcm_moist.vscale:     100.0,
  geosgcm_moist.vunit:     'hPa',
  geosgcm_moist.vvars:     'log(PLE)' , 'DYN'          ,
  geosgcm_moist.levels:     1000 975 950 925 900 875 850 825 800 775 750 725 700 650 600 550 500 450 400 350 300 250 200 150 100 70 50 40 30 20 10 7 5 4 3 2 1 0.7 0.5 0.4 0.3 0.2 0.1 0.07 0.05 0.04 0.03 0.02,
  geosgcm_moist.fields:    'PHIS'    , 'AGCM'          ,
                           'QL'      , 'MOIST'         ,
                           'QI'      , 'MOIST'         ,
                           'QR'      , 'MOIST'         ,
                           'RI'      , 'MOIST'         , 'RICE'   ,
                           'RL'      , 'MOIST'         , 'RLIQ'   ,
                           'RH1'     , 'MOIST'         ,
                           'CNV_MF0' , 'MOIST'         , 'CNVMF0' ,
                           'CNV_MFD' , 'MOIST'         , 'CNVMFD' ,
                           'CNV_MFC' , 'MOIST'         , 'CNVMFC' ,
                           'REV_CN'  , 'MOIST'         , 'REVCN'  ,
                           'REV_AN'  , 'MOIST'         , 'REVAN'  ,
                           'REV_LS'  , 'MOIST'         , 'REVLS'  ,
                           'RSU_CN'  , 'MOIST'         , 'RSUCN'  ,
                           'RSU_AN'  , 'MOIST'         , 'RSUAN'  ,
                           'RSU_LS'  , 'MOIST'         , 'RSULS'  ,
                           'THIM'    , 'PHYSICS'       ,
                           'EVAPC'   , 'MOIST'         ,
                           'SUBLC'   , 'MOIST'         ,
                           'FCLD'    , 'MOIST'         ,
                           'CLCN'    , 'MOIST'         ,
                           'CLLS'    , 'MOIST'         ,
                           'QICN'    , 'MOIST'         ,
                           'QILS'    , 'MOIST'         ,
                           'QLCN'    , 'MOIST'         ,
                           'QLLS'    , 'MOIST'         ,
                           ::

  geosgcm_turb.template:  '%y4%m2%d2_%h2%n2z.nc4',
  geosgcm_turb.archive:   '%c/Y%y4',
  geosgcm_turb.format:    'CFIO',
  geosgcm_turb.mode:      'time-averaged',
  geosgcm_turb.frequency:  240000,
  geosgcm_turb.ref_time:   210000,
  geosgcm_turb.grid_label: PC360x181-DC
  geosgcm_turb.vscale:     100.0,
  geosgcm_turb.vunit:     'hPa',
  geosgcm_turb.vvars:     'log(PLE)' , 'DYN'          ,
  geosgcm_turb.levels:     1000 975 950 925 900 875 850 825 800 775 750 725 700 650 600 550 500 450 400 350 300 250 200 150 100 70 50 40 30 20 10 7 5 4 3 2 1 0.7 0.5 0.4 0.3 0.2 0.1 0.07 0.05 0.04 0.03 0.02,
  geosgcm_turb.fields:    'INTDIS'   , 'TURBULENCE'    ,
                          'TOPDIS'   , 'TURBULENCE'    ,
                          'SRFDIS'   , 'TURBULENCE'    ,
                          'DBUOY'    , 'TURBULENCE'    ,
                          'WERAD'    , 'TURBULENCE'    ,
                          'KH'       , 'TURBULENCE'    ,
                          'KM'       , 'TURBULENCE'    ,
                          'KHLS'     , 'TURBULENCE'    ,
                          'KMLS'     , 'TURBULENCE'    ,
                          'EKH'      , 'TURBULENCE'    ,
                          'EKM'      , 'TURBULENCE'    ,
                          'KHSFC'    , 'TURBULENCE'    ,
                          'KHRAD'    , 'TURBULENCE'    ,
                          'RI'       , 'TURBULENCE'    ,
                          'DU'       , 'TURBULENCE'    ,
                          ::

  geosgcm_gwd.template:  '%y4%m2%d2_%h2%n2z.nc4',
  geosgcm_gwd.archive:   '%c/Y%y4',
  geosgcm_gwd.format:    'CFIO',
  geosgcm_gwd.mode:      'time-averaged',
  geosgcm_gwd.frequency:  240000,
  geosgcm_gwd.ref_time:   210000,
  geosgcm_gwd.grid_label: PC360x181-DC
  geosgcm_gwd.vscale:     100.0,
  geosgcm_gwd.vunit:     'hPa',
  geosgcm_gwd.vvars:     'log(PLE)' , 'DYN'          ,
  geosgcm_gwd.levels:     1000 975 950 925 900 875 850 825 800 775 750 725 700 650 600 550 500 450 400 350 300 250 200 150 100 70 50 40 30 20 10 7 5 4 3 2 1 0.7 0.5 0.4 0.3 0.2 0.1 0.07 0.05 0.04 0.03 0.02,
  geosgcm_gwd.fields:    'DUDT_ORO;DVDT_ORO', 'GWD', 'DUDTORO;DVDTORO' ,
                         'DUDT_BKG;DVDT_BKG', 'GWD', 'DUDTBKG;DVDTBKG' ,
                         'DUDT_RAY;DVDT_RAY', 'GWD', 'DUDTRAY;DVDTRAY' ,
                         'TAUOROX;TAUOROY'  , 'GWD',
                         'TAUBKGX;TAUBKGY'  , 'GWD',
                         'DTDT_ORO',          'GWD', 'DTDTORO' ,
                         'DTDT_BKG',          'GWD', 'DTDTBKG' ,
                         'DTDT_RAY',          'GWD', 'DTDTRAY' ,
                         ::

  geosgcm_tend.template:  '%y4%m2%d2_%h2%n2z.nc4',
  geosgcm_tend.archive:   '%c/Y%y4',
  geosgcm_tend.format:    'CFIO',
  geosgcm_tend.mode:      'time-averaged',
  geosgcm_tend.frequency:  240000,
  geosgcm_tend.ref_time:   210000,
  geosgcm_tend.grid_label: PC360x181-DC
  geosgcm_tend.vscale:     100.0,
  geosgcm_tend.vunit:     'hPa',
  geosgcm_tend.vvars:     'log(PLE)' , 'DYN'          ,
  geosgcm_tend.levels:     1000 975 950 925 900 875 850 825 800 775 750 725 700 650 600 550 500 450 400 350 300 250 200 150 100 70 50 40 30 20 10 7 5 4 3 2 1 0.7 0.5 0.4 0.3 0.2 0.1 0.07 0.05 0.04 0.03 0.02,
  geosgcm_tend.fields:    'DUDTDYN;DVDTDYN', 'DYN'     ,
                          'UIT;VIT'        , 'PHYSICS' ,  'DUDTTRB;DVDTTRB' ,
                          'DUDT;DVDT'      , 'MOIST'   ,  'DUDTMST;DVDTMST' ,
                          'DUDT;DVDT'      , 'GWD'     ,  'DUDTGWD;DVDTGWD' ,
                          'DTDTDYN'  , 'DYN'           ,
                          'TIM'      , 'PHYSICS'       ,  'DTDTMST'    ,
                          'TIT'      , 'PHYSICS'       ,  'DTDTTRB'    ,
                          'TTMGW'    , 'GWD'           ,  'DTDTGWD'    ,
                          'RADLW'    , 'RADIATION'     ,  'DTDTLW'     ,
                          'RADLWC'   , 'RADIATION'     ,  'DTDTLWC'    ,
                          'RADLWCNA' , 'RADIATION'     ,  'DTDTLWCNA'  ,
                          'RADSW'    , 'RADIATION'     ,  'DTDTSW'     ,
                          'RADSWC'   , 'RADIATION'     ,  'DTDTSWC'    ,
                          'RADSWNA'  , 'RADIATION'     ,  'DTDTSWNA'   ,
                          'RADSWCNA' , 'RADIATION'     ,  'DTDTSWCNA'  ,
                          'TIF'      , 'PHYSICS'       ,  'DTDTFRI'    ,
                          'DQVDTDYN' , 'DYN'           ,
                          'DQDT'     , 'MOIST'         ,  'DQVDTMST'   ,
                          'QVIT'     , 'PHYSICS'       ,  'DQVDTTRB'   ,
                          'H2O_TEND' , 'CHEMISTRY'     ,  'DQVDTCHM'   ,
                          'DPDTPHY'  , 'PHYSICS'       ,
                          ::

  geosgcm_budi.template:    '%y4%m2%d2_%h2%n2z.nc4',
  geosgcm_budi.archive:     '%c/Y%y4',
  geosgcm_budi.format:      'CFIO',
  geosgcm_budi.conservative: 1,
  geosgcm_budi.frequency:    030000,
  geosgcm_budi.grid_label:   PC360x181-DC
  geosgcm_budi.fields:      'TQV'   , 'AGCM'  ,
                            'TQI'   , 'AGCM'  ,
                            'TQL'   , 'AGCM'  ,
                            'TOX'   , 'AGCM'  ,
                            'MASS'  , 'AGCM'  ,
                             ::

  geosgcm_buda.template:    '%y4%m2%d2_%h2%n2z.nc4',
  geosgcm_buda.archive:     '%c/Y%y4',
  geosgcm_buda.format:      'CFIO',
  geosgcm_buda.mode:        'time-averaged',
  geosgcm_buda.conservative: 1,
  geosgcm_buda.frequency:    030000,
  geosgcm_buda.grid_label:   PC360x181-DC
  geosgcm_buda.fields:      'DMDTDYN'       , 'DYN'         , 'DMDTDYN'     ,
                            'DMDTANA'       , 'DYN'         , 'DMDTANA'     ,
                            'DMDT'          , 'PHYSICS'     , 'DMDTPHY'     ,
                            'DQVDTDYNINT'   , 'DYN'         , 'DQVDTDYN'    ,
                            'DQVDTPHYINT'   , 'PHYSICS'     , 'DQVDTPHY'    ,
                            'DQVDTANAINT'   , 'DYN'         , 'DQVDTANA'    ,
                            'DQVDTMSTINT'   , 'PHYSICS'     , 'DQVDTMST'    ,
                            'DQVDTTRBINT'   , 'PHYSICS'     , 'DQVDTTRB'    ,
                            'DQVDTCHMINT'   , 'PHYSICS'     , 'DQVDTCHM'    ,
                            'DQLDTDYNINT'   , 'DYN'         , 'DQLDTDYN'    ,
                            'DQLDTPHYINT'   , 'PHYSICS'     , 'DQLDTPHY'    ,
                            'DQLDTANAINT'   , 'DYN'         , 'DQLDTANA'    ,
                            'DQLDTMSTINT'   , 'PHYSICS'     , 'DQLDTMST'    ,
                            'DQIDTDYNINT'   , 'DYN'         , 'DQIDTDYN'    ,
                            'DQIDTPHYINT'   , 'PHYSICS'     , 'DQIDTPHY'    ,
                            'DQIDTANAINT'   , 'DYN'         , 'DQIDTANA'    ,
                            'DQIDTMSTINT'   , 'PHYSICS'     , 'DQIDTMST'    ,
                            'DOXDTDYNINT'   , 'DYN'         , 'DOXDTDYN'    ,
                            'DOXDTPHYINT'   , 'PHYSICS'     , 'DOXDTPHY'    ,
                            'DOXDTANAINT'   , 'DYN'         , 'DOXDTANA'    ,
                            'DOXDTCHMINT'   , 'PHYSICS'     , 'DOXDTCHM'    ,
                             ::

  geosgcm_iau.template:  '%y4%m2%d2_%h2%n2z.nc4',
  geosgcm_iau.archive:   '%c/Y%y4',
  geosgcm_iau.format:    'CFIO',
  geosgcm_iau.mode:      'time-averaged',
  geosgcm_iau.frequency:  060000,
  geosgcm_iau.ref_time:   030000,
  geosgcm_iau.grid_label: PC360x181-DC
  geosgcm_iau.vscale:     100.0,
  geosgcm_iau.vunit:     'hPa',
  geosgcm_iau.vvars:     'log(PLE)' , 'DYN'          ,
  geosgcm_iau.levels:     1000 975 950 925 900 875 850 825 800 775 750 725 700 650 600 550 500 450 400 350 300 250 200 150 100 70 50 40 30 20 10 7 5 4 3 2 1 0.7 0.5 0.4 0.3 0.2 0.1 0.07 0.05 0.04 0.03 0.02,
  geosgcm_iau.fields:     'DUDT_ANA;DVDT_ANA' , 'AGCM'   , 'DUDTANA;DVDTANA'    ,
                          'DTDT_ANA'    , 'AGCM'         , 'DTDTANA'    ,
                          'DQVDT_ANA'   , 'AGCM'         , 'DQDTANA'    ,
                          'DMDTANA'     , 'DYN'          , 'DMDTANA'    ,
#                         'VINTDIV_ANA' , 'AIAU'         ,
#                         'VINTDIV_BKG' , 'AIAU'         ,
#                         'VINTDIV_COR' , 'AIAU'         ,
#                         'DUWINDFIX;DVWINDFIX'   , 'AIAU'         ,
#                         'DTSDT_ANA'   , 'AGCM'         ,
#                         'UBKG;VBKG'   , 'AIAU'         ,
#                         'TVBKG'       , 'AIAU'         ,
#                         'QVBKG'       , 'AIAU'         ,
                          ::

# Note: Be Sure to ADD: USE_SATSIM_MODIS: 1 in AGCM.rc for this Collection
# ------------------------------------------------------------------------
  geosgcm_conv.template:  '%y4%m2%d2_%h2%n2z.nc4',
  geosgcm_conv.archive:   '%c/Y%y4',
  geosgcm_conv.format:    'CFIO',
  geosgcm_conv.frequency:  010000,
  geosgcm_conv.grid_label: PC360x181-DC
  geosgcm_conv.fields:     'TQV'        , 'AGCM'     ,
                           'TQI'        , 'AGCM'     ,
                           'TQL'        , 'AGCM'     ,
                           'CWP'        , 'MOIST'    ,
                           'LWP'        , 'MOIST'    ,
                           'IWP'        , 'MOIST'    ,
                           'SNO'        , 'MOIST'    , 'PRECSNO' ,
                           'TPREC'      , 'MOIST'    , 'PRECTOT' ,
                           'AN_PRCP'    , 'MOIST'    , 'PRECANV' ,
                           'CN_PRCP'    , 'MOIST'    , 'PRECCON' ,
                           'LS_PRCP'    , 'MOIST'    , 'PRECLSC' ,
                           'CAPE'       , 'MOIST'    ,
                           'INHB'       , 'MOIST'    , 'CIN'     ,
                           'TBISCCP'    , 'SATSIM'   ,
                           'MDSCLDSZWTR', 'SATSIM'   ,
                           'MDSCLDSZICE', 'SATSIM'   ,
                          ::

  geosgcm_bud.template:  '%y4%m2%d2_%h2%n2z.nc4',
  geosgcm_bud.archive:   '%c/Y%y4',
  geosgcm_bud.format:    'CFIO' ,
  geosgcm_bud.mode:      'time-averaged',
  geosgcm_bud.frequency:  240000,
  geosgcm_bud.ref_time:   210000,
  geosgcm_bud.grid_label: PC360x181-DC
  geosgcm_bud.fields:    'PHIS'        , 'AGCM'          ,
                         'PS'          , 'DYN'           ,
                         'KEDYN'       , 'DYN'           ,
                         'PEDYN'       , 'DYN'           ,
                         'TEDYN'       , 'DYN'           ,
                         'KEPHY'       , 'DYN'           ,
                         'PEPHY'       , 'DYN'           ,
                         'TEPHY'       , 'DYN'           ,
                         'KEANA'       , 'DYN'           ,
                         'PEANA'       , 'DYN'           ,
                         'TEANA'       , 'DYN'           ,
                         'KEGEN'       , 'DYN'           ,
                         'KEGWD'       , 'GWD'           ,
                         'KERAY'       , 'GWD'           ,
                         'KEBKG'       , 'GWD'           ,
                         'KEORO'       , 'GWD'           ,
                         'KETRB'       , 'TURBULENCE'    ,
                         'KESRF'       , 'TURBULENCE'    ,
                         'KEINT'       , 'TURBULENCE'    ,
                         'KETOP'       , 'TURBULENCE'    ,
                         'KEMST'       , 'MOIST'         ,
                         'KECDCOR'     , 'DYN'           ,
                         'PECDCOR'     , 'DYN'           ,
                         'TECDCOR'     , 'DYN'           ,
                         'KEREMAP'     , 'DYN'           ,
                         'PEREMAP'     , 'DYN'           ,
                         'TEREMAP'     , 'DYN'           ,
                         'CONVKE'      , 'DYN'           ,
                         'CONVCPT'     , 'DYN'           ,
                         'CONVPHI'     , 'DYN'           ,
                         'CONVTHV'     , 'DYN'           ,
                         'KEADV'       , 'DYN'           ,
                         'KEPG'        , 'DYN'           ,
                         'KEDP'        , 'DYN'           ,
                         'KEHOT'       , 'DYN'           ,
                         'DKERESIN'    , 'DYN'           ,
                         'DKERESPG'    , 'DYN'           ,
                         'QFIXER'      , 'DYN'           ,
                         'DTHVDTREMAP' , 'DYN'           ,
                         'DTHVDTCONSV' , 'DYN'           ,
                         ::

  goswim_catch.template:  '%y4%m2%d2_%h2%n2z.nc4',
  goswim_catch.archive:   '%c/Y%y4',
  goswim_catch.format:    'CFIO',
  goswim_catch.mode:      'time-averaged',
  goswim_catch.frequency:  240000,
  goswim_catch.ref_time:   210000,
  goswim_catch.regrid_name: 'PE90x540-CF'
  goswim_catch.regrid_exch: 'tile.bin',
  goswim_catch.grid_label: PC360x181-DC,
  goswim_catch.fields:    'SNDZN1'    , 'CATCH'      ,
			  'SNDZN2'    , 'CATCH'      ,
			  'SNDZN3'    , 'CATCH'      ,
			  'WESNN1'    , 'CATCH'	     ,
			  'WESNN2'    , 'CATCH'	     ,
			  'WESNN3'    , 'CATCH'	     ,
			  'ASNOW'     , 'CATCH'	     ,
                          'ALBVR'     , 'CATCH'      ,
                          'ALBVF'     , 'CATCH'      ,
                          'ALBNR'     , 'CATCH'      ,
                          'ALBNF'     , 'CATCH'      ,
                          'RUNSURF'   , 'CATCH'      ,